/*--------------------------------*- C++ -*----------------------------------*\
| =========                 |                                                 |
| \\      /  F ield         | OpenFOAM: The Open Source CFD Toolbox           |
|  \\    /   O peration     | Version:  v2306                                 |
|   \\  /    A nd           | Website:  www.openfoam.com                      |
|    \\/     M anipulation  |                                                 |
\*---------------------------------------------------------------------------*/
FoamFile
{
    version     2.0;
    format      ascii;
    class       volScalarField;
    object      p_rgh;
}
// * * * * * * * * * * * * * * * * * * * * * * * * * * * * * * * * * * * * * //

dimensions      [1 -1 -2 0 0 0 0];

internalField   uniform 0;

boundaryField
{
    bottomwall
    {
        type            fixedFluxPressure;
        value           uniform 0;
    }

    backwall
    {
        type            fixedFluxPressure;
        value           uniform 0;
    }

    rightwall
    {
        type            fixedFluxPressure;
        value           uniform 0;

    }

    frontwall
    {
        type            fixedFluxPressure;
        value           uniform 0;

    }

    inlet
    {
        type            fixedFluxPressure;
        value           uniform 0;
    }

    atmosphere
    {
        type            totalPressure;
        p0              uniform 0;
        U               U;
        phi             phi;
        rho             rho;
        gamma           1;
        value           uniform 0;
    }
}


// ************************************************************************* //
