/*--------------------------------*- C++ -*----------------------------------*\
| =========                 |                                                 |
| \\      /  F ield         | OpenFOAM: The Open Source CFD Toolbox           |
|  \\    /   O peration     | Version:  2306                                  |
|   \\  /    A nd           | Website:  www.openfoam.com                      |
|    \\/     M anipulation  |                                                 |
\*---------------------------------------------------------------------------*/
FoamFile
{
    version     2.0;
    format      ascii;
    arch        "LSB;label=32;scalar=64";
    class       volScalarField;
    location    "0";
    object      porosity;
}
// * * * * * * * * * * * * * * * * * * * * * * * * * * * * * * * * * * * * * //

dimensions      [0 0 0 0 0 0 0];

internalField   uniform 1;

boundaryField
{

    bottomwall
    {
        type            calculated;
        value           $internalField;
    }

    backwall
    {
        type            calculated;
        value           $internalField;
    }

    rightwall
    {
        type            calculated;
        value           $internalField;
    }

    frontwall
    {
        type            calculated;
        value           $internalField;
    }

    inlet
    {
        type            calculated;
        value           $internalField;
    }

    atmosphere
    {
        type            calculated;
        value           $internalField;
    }

}

// ************************************************************************* //
