/*--------------------------------*- C++ -*----------------------------------*\
| =========                 |                                                 |
| \\      /  F ield         | OpenFOAM: The Open Source CFD Toolbox           |
|  \\    /   O peration     | Version:  v2306                                 |
|   \\  /    A nd           | Website:  www.openfoam.com                      |
|    \\/     M anipulation  |                                                 |
\*---------------------------------------------------------------------------*/
FoamFile
{
    version     2.0;
    format      ascii;
    class       dictionary;
    object      setFieldsDict;
}
// * * * * * * * * * * * * * * * * * * * * * * * * * * * * * * * * * * * * * //

defaultFieldValues
(
    volScalarFieldValue alpha.water 0
    volScalarFieldValue porosity 1
);

regions
(
    boxToCell
    {
        box (0 0 0) (12 0.252 1);

        fieldValues
        (
            volScalarFieldValue alpha.water 1
        );
    }
   boxToCell
    {
        box (0.82 0 0) (10.06 0.5916 1);

        fieldValues
        (
            volScalarFieldValue porosity 0.48
        );
    }
    boxToCell
    {
        box (1.16 0 0) (10.4 0.5916 1);

        fieldValues
        (
            volScalarFieldValue porosity 0.48
        );
    }
);


// ************************************************************************* //
